
     RDKit          3D

 32 32  0  0  0  0  0  0  0  0999 V2000
   -1.3426   -2.9902    0.8117 O   0  0  0  0  0  0  0  0  0  0  0  0
   -0.9659   -1.7568    0.2789 C   0  0  0  0  0  0  0  0  0  0  0  0
    0.3491   -1.5316   -0.1168 C   0  0  0  0  0  0  0  0  0  0  0  0
    0.7052   -0.3064   -0.6417 C   0  0  0  0  0  0  0  0  0  0  0  0
   -0.2849    0.6670   -0.7540 C   0  0  0  0  0  0  0  0  0  0  0  0
   -1.5826    0.4625   -0.3700 C   0  0  0  0  0  0  0  0  0  0  0  0
   -2.5709    1.4063   -0.4720 O   0  0  0  0  0  0  0  0  0  0  0  0
   -2.4589    2.7030   -0.9641 C   0  0  0  0  0  0  0  0  0  0  0  0
   -1.9244   -0.7712    0.1546 C   0  0  0  0  0  0  0  0  0  0  0  0
   -3.1977   -1.0340    0.5537 O   0  0  0  0  0  0  0  0  0  0  0  0
   -4.2317   -1.5609   -0.2103 C   0  0  0  0  0  0  0  0  0  0  0  0
    2.0608    0.0422   -1.0916 C   0  0  0  0  0  0  0  0  0  0  0  0
    2.8213    0.6346    0.0977 C   0  0  0  0  0  0  0  0  0  0  0  0
    2.8974   -0.3305    1.1759 N   0  0  0  0  0  0  0  0  0  0  0  0
   -0.3719   -4.0231    0.9497 C   0  0  0  0  0  0  0  0  0  0  0  0
    1.0974   -2.2907   -0.0235 H   0  0  0  0  0  0  0  0  0  0  0  0
   -0.0300    1.6289   -1.1601 H   0  0  0  0  0  0  0  0  0  0  0  0
   -1.5680    2.9014   -1.5763 H   0  0  0  0  0  0  0  0  0  0  0  0
   -2.5526    3.4866   -0.1796 H   0  0  0  0  0  0  0  0  0  0  0  0
   -3.3307    2.8849   -1.6452 H   0  0  0  0  0  0  0  0  0  0  0  0
   -4.6161   -2.4684    0.3303 H   0  0  0  0  0  0  0  0  0  0  0  0
   -3.7915   -1.9424   -1.1652 H   0  0  0  0  0  0  0  0  0  0  0  0
   -5.0956   -0.9098   -0.3535 H   0  0  0  0  0  0  0  0  0  0  0  0
    2.0895    0.7149   -1.9513 H   0  0  0  0  0  0  0  0  0  0  0  0
    2.6121   -0.8811   -1.3943 H   0  0  0  0  0  0  0  0  0  0  0  0
    3.8695    0.8591   -0.2052 H   0  0  0  0  0  0  0  0  0  0  0  0
    2.3049    1.5375    0.4834 H   0  0  0  0  0  0  0  0  0  0  0  0
    3.1259   -1.2835    0.7696 H   0  0  0  0  0  0  0  0  0  0  0  0
    3.6477   -0.0846    1.8479 H   0  0  0  0  0  0  0  0  0  0  0  0
    0.1669   -4.1060   -0.0262 H   0  0  0  0  0  0  0  0  0  0  0  0
   -0.9354   -4.9456    1.1759 H   0  0  0  0  0  0  0  0  0  0  0  0
    0.2772   -3.7212    1.7920 H   0  0  0  0  0  0  0  0  0  0  0  0
  1  2  1  0
  2  3  2  0
  3  4  1  0
  4  5  2  0
  5  6  1  0
  6  7  1  0
  7  8  1  0
  6  9  2  0
  9 10  1  0
 10 11  1  0
  4 12  1  0
 12 13  1  0
 13 14  1  0
  1 15  1  0
  9  2  1  0
  3 16  1  0
  5 17  1  0
  8 18  1  0
  8 19  1  0
  8 20  1  0
 11 21  1  0
 11 22  1  0
 11 23  1  0
 12 24  1  0
 12 25  1  0
 13 26  1  0
 13 27  1  0
 14 28  1  0
 14 29  1  0
 15 30  1  0
 15 31  1  0
 15 32  1  0
M  END
$$$$
